Circuit: * D:\MonTravail\LTspice\Projets\Essai1\Releve V-I diode.asc


Date: Thu Aug 29 10:48:37 2013
Total elapsed time: 0.058 seconds.

tnom = 27
temp = 27
method = trap
totiter = 2011
traniter = 0
tranpoints = 0
accept = 0
rejected = 0
matrix size = 6
fillins = 0
solver = Normal
Matrix Compiler1: 182 octets object code size  0.3/0.1/[0.0]
Matrix Compiler2: 394 octets object code size  0.1/0.2/[0.1]


