Circuit: * D:\MonTravail\LTspice\LTSpiceIUT\Projets\circuitRCparametre\circuitRC.asc

.OP point found by inspection.
.step cap=5e-007
.step cap=1e-006
.step cap=2e-006

Date: Tue Jun 09 08:53:13 2015
Total elapsed time: 0.233 seconds.

tnom = 27
temp = 27
method = modified trap
totiter = 2558
traniter = 2558
tranpoints = 1280
accept = 1224
rejected = 56
matrix size = 3
fillins = 0
solver = Normal
Matrix Compiler1: off  [0.0]/0.0/0.0
Matrix Compiler2: 175 octets object code size  0.1/0.1/[0.0]


