Circuit: * D:\MonTravail\LTspice\Projets\TraceTransistor\TraceTransistor.asc

.step i1=0
.step i1=0.0002
.step i1=0.0004
.step i1=0.0006
.step i1=0.0008
.step i1=0.001
.step i1=0.0012
.step i1=0.0014
.step i1=0.0016
.step i1=0.0018
.step i1=0.002

Date: Thu Aug 29 11:44:02 2013
Total elapsed time: 0.536 seconds.

tnom = 27
temp = 27
method = trap
totiter = 22165
traniter = 0
tranpoints = 0
accept = 0
rejected = 0
matrix size = 6
fillins = 0
solver = Normal
Matrix Compiler1: 360 octets object code size  0.4/0.2/[0.1]
Matrix Compiler2: 462 octets object code size  0.1/0.1/[0.1]


