Circuit: * D:\MonTravail\LTspice\LTSpiceIUT\Projets\ZenerTest\Zener.asc

Warning: Multiple definitions of model "rfn30ts6d" Type: Diode
Direct Newton iteration for .op point succeeded.
Semiconductor Device Operating Points:
                        --- Diodes ---
Name:       d1
Model: bzx84c4v7/ztx
Id:      -2.50e-02
Vd:      -4.74e+00
Req:      1.03e+00
CAP:      5.73e-07



Date: Wed Jun 10 15:25:06 2015
Total elapsed time: 0.077 seconds.

tnom = 27
temp = 27
method = trap
totiter = 34
traniter = 0
tranpoints = 0
accept = 0
rejected = 0
matrix size = 4
fillins = 0
solver = Normal
Matrix Compiler1: 100 octets object code size
Matrix Compiler2:      21 opcodes

