Circuit: * D:\MonTravail\LTspice\Projets\Essai1\pontdiv.asc

Direct Newton iteration for .op point succeeded.

Date: Thu Aug 29 10:43:43 2013
Total elapsed time: 0.093 seconds.

tnom = 27
temp = 27
method = trap
totiter = 3
traniter = 0
tranpoints = 0
accept = 0
rejected = 0
matrix size = 3
fillins = 0
solver = Normal
Matrix Compiler1: 50 octets object code size
Matrix Compiler2: 175 octets object code size

