Circuit: * D:\MonTravail\LTspice\LTSpiceIUT\Projets\AOP\AOPMonoTension.asc

Direct Newton iteration for .op point succeeded.

Date: Wed Jun 10 10:44:35 2015
Total elapsed time: 0.143 seconds.

tnom = 27
temp = 27
method = modified trap
totiter = 3816
traniter = 3792
tranpoints = 1260
accept = 1197
rejected = 63
matrix size = 100
fillins = 63
solver = Normal
Thread vector: 18.5/10.4[3] 6.6/2.9[3] 2.8/1.7[3] 0.9/1.6[1]  2592/500
Matrix Compiler1: 6,06 Ko object code size  4.2/1.4/[1.0]
Matrix Compiler2: 7,87 Ko object code size  1.7/2.2/[1.6]


